[Format]      =  1
[Precision]   =  1e-008
[Frequency]   =  600
[MinAngle]    =  30
[Depth]       =  1
[LengthUnits] =  meters
[ProblemType] =  axisymmetric
[Coordinates] =  cartesian
[Comment]     =  "Add comments here."
[PointProps]   = 0
[BdryProps]   = 1
  <BeginBdry>
    <BdryName> = "Infinity"
    <BdryType> = 1
    <vsr> = 0
    <vsi> = 0
    <qsr> = 0
    <qsi> = 0
    <c0r>  = 8.4325598263047606e-020
    <c0i>  = 0
    <c1r>  = 0
    <c1i>  = 0
  <EndBdry>
[BlockProps]  = 3
  <BeginBlock>
    <BlockName> = "Air"
    <ox> = 0
    <oy> = 0
    <ex> = 1
    <ey> = 1
    <ltx> = 0
    <lty> = 0
  <EndBlock>
  <BeginBlock>
    <BlockName> = "Au"
    <ox> = 41000000
    <oy> = 41000000
    <ex> = 6.9000000000000004
    <ey> = 6.9000000000000004
    <ltx> = 0
    <lty> = 0
  <EndBlock>
  <BeginBlock>
    <BlockName> = "Clay"
    <ox> = 1e-008
    <oy> = 1e-008
    <ex> = 3
    <ey> = 3
    <ltx> = 0
    <lty> = 0
  <EndBlock>
[ConductorProps]  = 2
  <BeginConductor>
    <ConductorName> = "Tip (Pt Ir)"
    <vcr> = 10
    <vci> = 0
    <qcr> = 0
    <qci> = 0
    <ConductorType> = 1
  <EndConductor>
  <BeginConductor>
    <ConductorName> = "Ground (Au)"
    <vcr> = 0
    <vci> = 0
    <qcr> = 0
    <qci> = 0
    <ConductorType> = 1
  <EndConductor>
[NumPoints] = 451
6.2400000000000002	0.020000000000000018	0	0	0
0	0	0	0	0
0	1	0	0	0
0	2	0	0	0
0	8.75	0	0	0
10.5	0	0	0	0
0	16.75	0	0	0
0.5	1.5	0	0	0
7.6409152957318724	12.041351150842289	0	0	0
0	0.75	0	0	0
2	0	0	0	0
2	0.60000000000000009	0	0	0
1.8500000000000001	0.75	0	0	0
0.029999999999999999	0.78000000000000003	0	0	0
1.6300000000000001	0.78000000000000003	0	0	0
0.53000000000000003	1.5	0	0	0
0	0.96999999999999975	0	0	0
0.56000000000000005	1.5	0	0	0
0	0.93999999999999995	0	0	0
0.59000000000000008	1.5	0	0	0
0	0.91000000000000014	0	0	0
3.8399999999999999	6.3399999999999999	0	0	0
0.85999999999999999	2.0099999999999998	0	0	0
0.059999999999999998	0.71999999999999997	0	0	0
0.059999999999999998	0.65999999999999992	0	0	0
0.059999999999999998	0.59999999999999998	0	0	0
0.059999999999999998	0.54000000000000004	0	0	0
0.059999999999999998	0.47999999999999998	0	0	0
0.059999999999999998	0.41999999999999998	0	0	0
0.059999999999999998	0.35999999999999999	0	0	0
0.059999999999999998	0.29999999999999999	0	0	0
0.059999999999999998	0.23999999999999999	0	0	0
0.059999999999999998	0.17999999999999999	0	0	0
0.059999999999999998	0.12	0	0	0
0.059999999999999998	0.059999999999999998	0	0	0
0.12	0.059999999999999998	0	0	0
0.17999999999999999	0.059999999999999998	0	0	0
0.17999999999999999	0.12	0	0	0
0.12	0.12	0	0	0
0.12	0.17999999999999999	0	0	0
0.17999999999999999	0.17999999999999999	0	0	0
0.17999999999999999	0.23999999999999999	0	0	0
0.12	0.23999999999999999	0	0	0
0.12	0.29999999999999999	0	0	0
0.17999999999999999	0.29999999999999999	0	0	0
0.12	0.35999999999999999	0	0	0
0.17999999999999999	0.35999999999999999	0	0	0
0.17999999999999999	0.41999999999999998	0	0	0
0.12	0.41999999999999998	0	0	0
0.12	0.47999999999999998	0	0	0
0.17999999999999999	0.47999999999999998	0	0	0
0.17999999999999999	0.54000000000000004	0	0	0
0.12	0.54000000000000004	0	0	0
0.12	0.59999999999999998	0	0	0
0.23999999999999999	0.59999999999999998	0	0	0
0.17999999999999999	0.65999999999999992	0	0	0
0.12	0.65999999999999992	0	0	0
0.17999999999999999	0.71999999999999997	0	0	0
0.12	0.71999999999999997	0	0	0
0.17999999999999999	0.59999999999999998	0	0	0
0.23999999999999999	0.71999999999999997	0	0	0
0.23999999999999999	0.65999999999999992	0	0	0
0.29999999999999999	0.71999999999999997	0	0	0
0.29999999999999999	0.59999999999999998	0	0	0
0.23999999999999999	0.54000000000000004	0	0	0
0.29999999999999999	0.54000000000000004	0	0	0
0.23999999999999999	0.47999999999999998	0	0	0
0.29999999999999999	0.47999999999999998	0	0	0
0.23999999999999999	0.41999999999999998	0	0	0
0.29999999999999999	0.41999999999999998	0	0	0
0.23999999999999999	0.35999999999999999	0	0	0
0.29999999999999999	0.35999999999999999	0	0	0
0.23999999999999999	0.29999999999999999	0	0	0
0.29999999999999999	0.29999999999999999	0	0	0
0.29999999999999999	0.23999999999999999	0	0	0
0.23999999999999999	0.23999999999999999	0	0	0
0.23999999999999999	0.17999999999999999	0	0	0
0.29999999999999999	0.17999999999999999	0	0	0
0.29999999999999999	0.12	0	0	0
0.23999999999999999	0.12	0	0	0
0.23999999999999999	0.059999999999999998	0	0	0
0.29999999999999999	0.059999999999999998	0	0	0
0.35999999999999999	0.71999999999999997	0	0	0
0.35999999999999999	0.59999999999999998	0	0	0
0.35999999999999999	0.54000000000000004	0	0	0
0.35999999999999999	0.47999999999999998	0	0	0
0.35999999999999999	0.41999999999999998	0	0	0
0.35999999999999999	0.35999999999999999	0	0	0
0.35999999999999999	0.29999999999999999	0	0	0
0.35999999999999999	0.23999999999999999	0	0	0
0.35999999999999999	0.17999999999999999	0	0	0
0.35999999999999999	0.12	0	0	0
0.35999999999999999	0.059999999999999998	0	0	0
0.41999999999999998	0.71999999999999997	0	0	0
0.41999999999999998	0.65999999999999992	0	0	0
0.41999999999999998	0.59999999999999998	0	0	0
0.41999999999999998	0.54000000000000004	0	0	0
0.41999999999999998	0.47999999999999998	0	0	0
0.41999999999999998	0.41999999999999998	0	0	0
0.41999999999999998	0.35999999999999999	0	0	0
0.41999999999999998	0.29999999999999999	0	0	0
0.41999999999999998	0.23999999999999999	0	0	0
0.41999999999999998	0.17999999999999999	0	0	0
0.41999999999999998	0.12	0	0	0
0.41999999999999998	0.059999999999999998	0	0	0
0.47999999999999998	0.71999999999999997	0	0	0
0.47999999999999998	0.65999999999999992	0	0	0
0.47999999999999998	0.59999999999999998	0	0	0
0.47999999999999998	0.54000000000000004	0	0	0
0.47999999999999998	0.47999999999999998	0	0	0
0.47999999999999998	0.41999999999999998	0	0	0
0.47999999999999998	0.35999999999999999	0	0	0
0.47999999999999998	0.29999999999999999	0	0	0
0.47999999999999998	0.23999999999999999	0	0	0
0.47999999999999998	0.17999999999999999	0	0	0
0.47999999999999998	0.12	0	0	0
0.47999999999999998	0.059999999999999998	0	0	0
0.54000000000000004	0.71999999999999997	0	0	0
0.54000000000000004	0.65999999999999992	0	0	0
0.54000000000000004	0.59999999999999998	0	0	0
0.54000000000000004	0.54000000000000004	0	0	0
0.54000000000000004	0.47999999999999998	0	0	0
0.54000000000000004	0.41999999999999998	0	0	0
0.54000000000000004	0.35999999999999999	0	0	0
0.54000000000000004	0.29999999999999999	0	0	0
0.54000000000000004	0.23999999999999999	0	0	0
0.54000000000000004	0.17999999999999999	0	0	0
0.54000000000000004	0.12	0	0	0
0.54000000000000004	0.059999999999999998	0	0	0
0.59999999999999998	0.71999999999999997	0	0	0
0.59999999999999998	0.65999999999999992	0	0	0
0.59999999999999998	0.59999999999999998	0	0	0
0.59999999999999998	0.54000000000000004	0	0	0
0.59999999999999998	0.47999999999999998	0	0	0
0.59999999999999998	0.41999999999999998	0	0	0
0.59999999999999998	0.35999999999999999	0	0	0
0.59999999999999998	0.29999999999999999	0	0	0
0.59999999999999998	0.23999999999999999	0	0	0
0.59999999999999998	0.17999999999999999	0	0	0
0.59999999999999998	0.12	0	0	0
0.59999999999999998	0.059999999999999998	0	0	0
0.65999999999999992	0.65999999999999992	0	0	0
0.65999999999999992	0.59999999999999998	0	0	0
0.65999999999999992	0.54000000000000004	0	0	0
0.65999999999999992	0.47999999999999998	0	0	0
0.65999999999999992	0.41999999999999998	0	0	0
0.65999999999999992	0.35999999999999999	0	0	0
0.65999999999999992	0.29999999999999999	0	0	0
0.65999999999999992	0.23999999999999999	0	0	0
0.65999999999999992	0.17999999999999999	0	0	0
0.65999999999999992	0.12	0	0	0
0.65999999999999992	0.059999999999999998	0	0	0
0.71999999999999997	0.65999999999999992	0	0	0
0.71999999999999997	0.59999999999999998	0	0	0
0.71999999999999997	0.54000000000000004	0	0	0
0.71999999999999997	0.47999999999999998	0	0	0
0.71999999999999997	0.41999999999999998	0	0	0
0.71999999999999997	0.35999999999999999	0	0	0
0.71999999999999997	0.29999999999999999	0	0	0
0.71999999999999997	0.23999999999999999	0	0	0
0.71999999999999997	0.17999999999999999	0	0	0
0.71999999999999997	0.12	0	0	0
0.71999999999999997	0.059999999999999998	0	0	0
0.77999999999999992	0.65999999999999992	0	0	0
0.77999999999999992	0.59999999999999998	0	0	0
0.77999999999999992	0.54000000000000004	0	0	0
0.77999999999999992	0.47999999999999998	0	0	0
0.77999999999999992	0.41999999999999998	0	0	0
0.77999999999999992	0.35999999999999999	0	0	0
0.77999999999999992	0.29999999999999999	0	0	0
0.77999999999999992	0.23999999999999999	0	0	0
0.77999999999999992	0.17999999999999999	0	0	0
0.77999999999999992	0.12	0	0	0
0.77999999999999992	0.059999999999999998	0	0	0
0.83999999999999997	0.71999999999999997	0	0	0
0.83999999999999997	0.65999999999999992	0	0	0
0.83999999999999997	0.59999999999999998	0	0	0
0.83999999999999997	0.54000000000000004	0	0	0
0.83999999999999997	0.47999999999999998	0	0	0
0.83999999999999997	0.41999999999999998	0	0	0
0.83999999999999997	0.35999999999999999	0	0	0
0.83999999999999997	0.29999999999999999	0	0	0
0.83999999999999997	0.23999999999999999	0	0	0
0.83999999999999997	0.17999999999999999	0	0	0
0.83999999999999997	0.12	0	0	0
0.83999999999999997	0.059999999999999998	0	0	0
0.89999999999999991	0.71999999999999997	0	0	0
0.89999999999999991	0.65999999999999992	0	0	0
0.89999999999999991	0.59999999999999998	0	0	0
0.89999999999999991	0.54000000000000004	0	0	0
0.89999999999999991	0.47999999999999998	0	0	0
0.89999999999999991	0.41999999999999998	0	0	0
0.89999999999999991	0.35999999999999999	0	0	0
0.89999999999999991	0.29999999999999999	0	0	0
0.89999999999999991	0.23999999999999999	0	0	0
0.89999999999999991	0.17999999999999999	0	0	0
0.89999999999999991	0.12	0	0	0
0.89999999999999991	0.059999999999999998	0	0	0
0.95999999999999996	0.71999999999999997	0	0	0
0.95999999999999996	0.65999999999999992	0	0	0
0.95999999999999996	0.59999999999999998	0	0	0
0.95999999999999996	0.54000000000000004	0	0	0
0.95999999999999996	0.47999999999999998	0	0	0
0.95999999999999996	0.41999999999999998	0	0	0
0.95999999999999996	0.35999999999999999	0	0	0
0.95999999999999996	0.29999999999999999	0	0	0
0.95999999999999996	0.23999999999999999	0	0	0
0.95999999999999996	0.17999999999999999	0	0	0
0.95999999999999996	0.12	0	0	0
0.95999999999999996	0.059999999999999998	0	0	0
1.02	0.71999999999999997	0	0	0
1.02	0.65999999999999992	0	0	0
1.02	0.59999999999999998	0	0	0
1.02	0.54000000000000004	0	0	0
1.02	0.47999999999999998	0	0	0
1.02	0.41999999999999998	0	0	0
1.02	0.35999999999999999	0	0	0
1.02	0.29999999999999999	0	0	0
1.02	0.23999999999999999	0	0	0
1.02	0.17999999999999999	0	0	0
1.02	0.12	0	0	0
1.02	0.059999999999999998	0	0	0
1.0800000000000001	0.71999999999999997	0	0	0
1.0800000000000001	0.65999999999999992	0	0	0
1.0800000000000001	0.59999999999999998	0	0	0
1.0800000000000001	0.54000000000000004	0	0	0
1.0800000000000001	0.47999999999999998	0	0	0
1.0800000000000001	0.41999999999999998	0	0	0
1.0800000000000001	0.35999999999999999	0	0	0
1.0800000000000001	0.29999999999999999	0	0	0
1.0800000000000001	0.23999999999999999	0	0	0
1.0800000000000001	0.17999999999999999	0	0	0
1.0800000000000001	0.12	0	0	0
1.0800000000000001	0.059999999999999998	0	0	0
1.1399999999999999	0.71999999999999997	0	0	0
1.1399999999999999	0.65999999999999992	0	0	0
1.1399999999999999	0.59999999999999998	0	0	0
1.1399999999999999	0.54000000000000004	0	0	0
1.1399999999999999	0.47999999999999998	0	0	0
1.1399999999999999	0.41999999999999998	0	0	0
1.1399999999999999	0.35999999999999999	0	0	0
1.1399999999999999	0.29999999999999999	0	0	0
1.1399999999999999	0.23999999999999999	0	0	0
1.1399999999999999	0.17999999999999999	0	0	0
1.1399999999999999	0.12	0	0	0
1.1399999999999999	0.059999999999999998	0	0	0
1.2	0.71999999999999997	0	0	0
1.2	0.65999999999999992	0	0	0
1.2	0.59999999999999998	0	0	0
1.2	0.54000000000000004	0	0	0
1.2	0.47999999999999998	0	0	0
1.2	0.41999999999999998	0	0	0
1.2	0.35999999999999999	0	0	0
1.2	0.29999999999999999	0	0	0
1.2	0.23999999999999999	0	0	0
1.2	0.17999999999999999	0	0	0
1.2	0.12	0	0	0
1.2	0.059999999999999998	0	0	0
1.2599999999999998	0.71999999999999997	0	0	0
1.2599999999999998	0.65999999999999992	0	0	0
1.2599999999999998	0.59999999999999998	0	0	0
1.2599999999999998	0.54000000000000004	0	0	0
1.2599999999999998	0.47999999999999998	0	0	0
1.2599999999999998	0.41999999999999998	0	0	0
1.2599999999999998	0.35999999999999999	0	0	0
1.2599999999999998	0.29999999999999999	0	0	0
1.2599999999999998	0.23999999999999999	0	0	0
1.2599999999999998	0.17999999999999999	0	0	0
1.2599999999999998	0.12	0	0	0
1.2599999999999998	0.059999999999999998	0	0	0
1.3199999999999998	0.71999999999999997	0	0	0
1.3199999999999998	0.65999999999999992	0	0	0
1.3199999999999998	0.59999999999999998	0	0	0
1.3199999999999998	0.54000000000000004	0	0	0
1.3199999999999998	0.47999999999999998	0	0	0
1.3199999999999998	0.41999999999999998	0	0	0
1.3199999999999998	0.35999999999999999	0	0	0
1.3199999999999998	0.29999999999999999	0	0	0
1.3199999999999998	0.23999999999999999	0	0	0
1.3199999999999998	0.17999999999999999	0	0	0
1.3199999999999998	0.12	0	0	0
1.3199999999999998	0.059999999999999998	0	0	0
1.3799999999999999	0.71999999999999997	0	0	0
1.3799999999999999	0.65999999999999992	0	0	0
1.3799999999999999	0.59999999999999998	0	0	0
1.3799999999999999	0.54000000000000004	0	0	0
1.3799999999999999	0.47999999999999998	0	0	0
1.3799999999999999	0.41999999999999998	0	0	0
1.3799999999999999	0.35999999999999999	0	0	0
1.3799999999999999	0.29999999999999999	0	0	0
1.3799999999999999	0.23999999999999999	0	0	0
1.3799999999999999	0.17999999999999999	0	0	0
1.3799999999999999	0.12	0	0	0
1.3799999999999999	0.059999999999999998	0	0	0
1.4399999999999997	0.71999999999999997	0	0	0
1.4399999999999997	0.65999999999999992	0	0	0
1.4399999999999997	0.59999999999999998	0	0	0
1.4399999999999997	0.54000000000000004	0	0	0
1.4399999999999997	0.47999999999999998	0	0	0
1.4399999999999997	0.41999999999999998	0	0	0
1.4399999999999997	0.35999999999999999	0	0	0
1.4399999999999997	0.29999999999999999	0	0	0
1.4399999999999997	0.23999999999999999	0	0	0
1.4399999999999997	0.17999999999999999	0	0	0
1.4399999999999997	0.12	0	0	0
1.4399999999999997	0.059999999999999998	0	0	0
1.4999999999999998	0.71999999999999997	0	0	0
1.4999999999999998	0.65999999999999992	0	0	0
1.4999999999999998	0.59999999999999998	0	0	0
1.4999999999999998	0.54000000000000004	0	0	0
1.4999999999999998	0.47999999999999998	0	0	0
1.4999999999999998	0.41999999999999998	0	0	0
1.4999999999999998	0.35999999999999999	0	0	0
1.4999999999999998	0.29999999999999999	0	0	0
1.4999999999999998	0.23999999999999999	0	0	0
1.4999999999999998	0.17999999999999999	0	0	0
1.4999999999999998	0.12	0	0	0
1.4999999999999998	0.059999999999999998	0	0	0
1.5599999999999998	0.71999999999999997	0	0	0
1.5599999999999998	0.65999999999999992	0	0	0
1.5599999999999998	0.59999999999999998	0	0	0
1.5599999999999998	0.54000000000000004	0	0	0
1.5599999999999998	0.47999999999999998	0	0	0
1.5599999999999998	0.41999999999999998	0	0	0
1.5599999999999998	0.35999999999999999	0	0	0
1.5599999999999998	0.29999999999999999	0	0	0
1.5599999999999998	0.23999999999999999	0	0	0
1.5599999999999998	0.17999999999999999	0	0	0
1.5599999999999998	0.12	0	0	0
1.5599999999999998	0.059999999999999998	0	0	0
1.6199999999999999	0.71999999999999997	0	0	0
1.6199999999999999	0.65999999999999992	0	0	0
1.6199999999999999	0.59999999999999998	0	0	0
1.6199999999999999	0.54000000000000004	0	0	0
1.6199999999999999	0.47999999999999998	0	0	0
1.6199999999999999	0.41999999999999998	0	0	0
1.6199999999999999	0.35999999999999999	0	0	0
1.6199999999999999	0.29999999999999999	0	0	0
1.6199999999999999	0.23999999999999999	0	0	0
1.6199999999999999	0.17999999999999999	0	0	0
1.6199999999999999	0.12	0	0	0
1.6199999999999999	0.059999999999999998	0	0	0
1.6799999999999997	0.71999999999999997	0	0	0
1.6799999999999997	0.65999999999999992	0	0	0
1.6799999999999997	0.59999999999999998	0	0	0
1.6799999999999997	0.54000000000000004	0	0	0
1.6799999999999997	0.47999999999999998	0	0	0
1.6799999999999997	0.41999999999999998	0	0	0
1.6799999999999997	0.35999999999999999	0	0	0
1.6799999999999997	0.29999999999999999	0	0	0
1.6799999999999997	0.23999999999999999	0	0	0
1.6799999999999997	0.17999999999999999	0	0	0
1.6799999999999997	0.12	0	0	0
1.6799999999999997	0.059999999999999998	0	0	0
1.7399999999999998	0.71999999999999997	0	0	0
1.7399999999999998	0.65999999999999992	0	0	0
1.7399999999999998	0.59999999999999998	0	0	0
1.7399999999999998	0.54000000000000004	0	0	0
1.7399999999999998	0.47999999999999998	0	0	0
1.7399999999999998	0.41999999999999998	0	0	0
1.7399999999999998	0.35999999999999999	0	0	0
1.7399999999999998	0.29999999999999999	0	0	0
1.7399999999999998	0.23999999999999999	0	0	0
1.7399999999999998	0.17999999999999999	0	0	0
1.7399999999999998	0.12	0	0	0
1.7399999999999998	0.059999999999999998	0	0	0
1.7999999999999998	0.71999999999999997	0	0	0
1.7999999999999998	0.65999999999999992	0	0	0
1.7999999999999998	0.59999999999999998	0	0	0
1.7999999999999998	0.54000000000000004	0	0	0
1.7999999999999998	0.47999999999999998	0	0	0
1.7999999999999998	0.41999999999999998	0	0	0
1.7999999999999998	0.35999999999999999	0	0	0
1.7999999999999998	0.29999999999999999	0	0	0
1.7999999999999998	0.23999999999999999	0	0	0
1.7999999999999998	0.17999999999999999	0	0	0
1.7999999999999998	0.12	0	0	0
1.7999999999999998	0.059999999999999998	0	0	0
1.8599999999999999	0.71999999999999997	0	0	0
1.8599999999999999	0.65999999999999992	0	0	0
1.8599999999999999	0.59999999999999998	0	0	0
1.8599999999999999	0.54000000000000004	0	0	0
1.8599999999999999	0.47999999999999998	0	0	0
1.8599999999999999	0.41999999999999998	0	0	0
1.8599999999999999	0.35999999999999999	0	0	0
1.8599999999999999	0.29999999999999999	0	0	0
1.8599999999999999	0.23999999999999999	0	0	0
1.8599999999999999	0.17999999999999999	0	0	0
1.8599999999999999	0.12	0	0	0
1.8599999999999999	0.059999999999999998	0	0	0
0.35999999999999999	0.65999999999999992	0	0	0
0.29999999999999999	0.65999999999999992	0	0	0
0.65999999999999992	0.71999999999999997	0	0	0
0.71999999999999997	0.71999999999999997	0	0	0
0.78000000000000003	0.71999999999999997	0	0	0
0	0.71999999999999997	0	0	0
0	0.65999999999999992	0	0	0
0	0.59999999999999998	0	0	0
0	0.54000000000000004	0	0	0
0	0.47999999999999998	0	0	0
0	0.41999999999999998	0	0	0
0	0.35999999999999999	0	0	0
0	0.29999999999999999	0	0	0
0	0.23999999999999999	0	0	0
0	0.17999999999999999	0	0	0
0	0.12	0	0	0
0	0.059999999999999998	0	0	0
0.059999999999999998	0	0	0	0
0.12	0	0	0	0
0.17999999999999999	0	0	0	0
0.23999999999999999	0	0	0	0
0.29999999999999999	0	0	0	0
0.35999999999999999	0	0	0	0
0.41999999999999998	0	0	0	0
0.47999999999999998	0	0	0	0
0.54000000000000004	0	0	0	0
0.59999999999999998	0	0	0	0
0.65999999999999992	0	0	0	0
0.71999999999999997	0	0	0	0
0.77999999999999992	0	0	0	0
0.83999999999999997	0	0	0	0
0.89999999999999991	0	0	0	0
0.95999999999999996	0	0	0	0
1.02	0	0	0	0
1.0800000000000001	0	0	0	0
1.1399999999999999	0	0	0	0
1.2	0	0	0	0
1.2599999999999998	0	0	0	0
1.3199999999999998	0	0	0	0
1.3799999999999999	0	0	0	0
1.4399999999999997	0	0	0	0
1.4999999999999998	0	0	0	0
1.5599999999999998	0	0	0	0
1.6199999999999999	0	0	0	0
1.6799999999999997	0	0	0	0
1.7399999999999998	0	0	0	0
1.7999999999999998	0	0	0	0
1.8599999999999999	0	0	0	0
1.9199999999999999	0.71999999999999997	0	0	0
1.9199999999999999	0.65999999999999992	0	0	0
1.9199999999999999	0.59999999999999998	0	0	0
1.9199999999999999	0.54000000000000004	0	0	0
1.9199999999999999	0.47999999999999998	0	0	0
1.9199999999999999	0.41999999999999998	0	0	0
1.9199999999999999	0.35999999999999999	0	0	0
1.9199999999999999	0.29999999999999999	0	0	0
1.9199999999999999	0.23999999999999999	0	0	0
1.9199999999999999	0.17999999999999999	0	0	0
1.9199999999999999	0.12	0	0	0
1.9199999999999999	0.059999999999999998	0	0	0
1.9199999999999999	0	0	0	0
[NumSegments] = 828
1	407	-1	0	0	0	2
407	408	-1	0	0	0	2
408	409	-1	0	0	0	2
409	410	-1	0	0	0	2
410	411	-1	0	0	0	2
411	412	-1	0	0	0	2
412	413	-1	0	0	0	2
413	414	-1	0	0	0	2
414	415	-1	0	0	0	2
415	416	-1	0	0	0	2
416	417	-1	0	0	0	2
417	418	-1	0	0	0	2
418	419	-1	0	0	0	2
419	420	-1	0	0	0	2
420	421	-1	0	0	0	2
421	422	-1	0	0	0	2
422	423	-1	0	0	0	2
423	424	-1	0	0	0	2
424	425	-1	0	0	0	2
425	426	-1	0	0	0	2
426	427	-1	0	0	0	2
427	428	-1	0	0	0	2
428	429	-1	0	0	0	2
429	430	-1	0	0	0	2
430	431	-1	0	0	0	2
431	432	-1	0	0	0	2
432	433	-1	0	0	0	2
433	434	-1	0	0	0	2
434	435	-1	0	0	0	2
435	436	-1	0	0	0	2
436	437	-1	0	0	0	2
437	450	-1	0	0	0	2
2	16	-1	0	0	0	0
16	18	-1	0	0	0	0
18	20	-1	0	0	0	0
20	9	-1	0	0	0	0
4	3	-1	0	0	0	0
0	5	-1	0	0	0	2
6	4	-1	0	0	0	0
3	2	-1	0	0	0	0
8	7	-1	0	0	0	1
9	395	-1	0	0	0	0
395	396	-1	0	0	0	0
396	397	-1	0	0	0	0
397	398	-1	0	0	0	0
398	399	-1	0	0	0	0
399	400	-1	0	0	0	0
400	401	-1	0	0	0	0
401	402	-1	0	0	0	0
402	403	-1	0	0	0	0
403	404	-1	0	0	0	0
404	405	-1	0	0	0	0
405	406	-1	0	0	0	0
406	1	-1	0	0	0	0
10	0	-1	0	0	0	2
11	10	-1	0	0	0	0
9	12	-1	0	0	0	0
13	14	-1	0	0	0	0
13	9	-1	0	0	0	0
23	58	-1	0	0	0	0
58	57	-1	0	0	0	0
60	57	-1	0	0	0	0
60	62	-1	0	0	0	0
82	62	-1	0	0	0	0
82	93	-1	0	0	0	0
93	105	-1	0	0	0	0
105	117	-1	0	0	0	0
117	129	-1	0	0	0	0
152	153	-1	0	0	0	0
153	154	-1	0	0	0	0
154	155	-1	0	0	0	0
155	156	-1	0	0	0	0
156	157	-1	0	0	0	0
157	158	-1	0	0	0	0
158	159	-1	0	0	0	0
159	160	-1	0	0	0	0
160	161	-1	0	0	0	0
161	162	-1	0	0	0	0
141	142	-1	0	0	0	0
142	143	-1	0	0	0	0
143	144	-1	0	0	0	0
144	145	-1	0	0	0	0
145	146	-1	0	0	0	0
146	147	-1	0	0	0	0
147	148	-1	0	0	0	0
148	149	-1	0	0	0	0
149	150	-1	0	0	0	0
150	151	-1	0	0	0	0
130	131	-1	0	0	0	0
131	132	-1	0	0	0	0
132	133	-1	0	0	0	0
133	134	-1	0	0	0	0
134	135	-1	0	0	0	0
135	136	-1	0	0	0	0
136	137	-1	0	0	0	0
137	138	-1	0	0	0	0
138	139	-1	0	0	0	0
139	140	-1	0	0	0	0
118	119	-1	0	0	0	0
119	120	-1	0	0	0	0
120	121	-1	0	0	0	0
121	122	-1	0	0	0	0
122	123	-1	0	0	0	0
123	124	-1	0	0	0	0
124	125	-1	0	0	0	0
125	126	-1	0	0	0	0
126	127	-1	0	0	0	0
127	128	-1	0	0	0	0
106	107	-1	0	0	0	0
107	108	-1	0	0	0	0
108	109	-1	0	0	0	0
109	110	-1	0	0	0	0
110	111	-1	0	0	0	0
111	112	-1	0	0	0	0
112	113	-1	0	0	0	0
113	114	-1	0	0	0	0
114	115	-1	0	0	0	0
115	116	-1	0	0	0	0
95	96	-1	0	0	0	0
96	97	-1	0	0	0	0
97	98	-1	0	0	0	0
98	99	-1	0	0	0	0
99	100	-1	0	0	0	0
100	101	-1	0	0	0	0
101	102	-1	0	0	0	0
102	103	-1	0	0	0	0
103	104	-1	0	0	0	0
83	84	-1	0	0	0	0
84	85	-1	0	0	0	0
85	86	-1	0	0	0	0
86	87	-1	0	0	0	0
87	88	-1	0	0	0	0
88	89	-1	0	0	0	0
89	90	-1	0	0	0	0
90	91	-1	0	0	0	0
91	92	-1	0	0	0	0
63	65	-1	0	0	0	0
65	67	-1	0	0	0	0
67	69	-1	0	0	0	0
69	71	-1	0	0	0	0
71	73	-1	0	0	0	0
73	74	-1	0	0	0	0
74	77	-1	0	0	0	0
77	78	-1	0	0	0	0
78	81	-1	0	0	0	0
61	54	-1	0	0	0	0
54	64	-1	0	0	0	0
64	66	-1	0	0	0	0
66	68	-1	0	0	0	0
68	70	-1	0	0	0	0
70	72	-1	0	0	0	0
72	75	-1	0	0	0	0
75	76	-1	0	0	0	0
76	79	-1	0	0	0	0
79	80	-1	0	0	0	0
55	59	-1	0	0	0	0
59	51	-1	0	0	0	0
51	50	-1	0	0	0	0
50	47	-1	0	0	0	0
47	46	-1	0	0	0	0
46	44	-1	0	0	0	0
44	41	-1	0	0	0	0
41	40	-1	0	0	0	0
40	37	-1	0	0	0	0
37	36	-1	0	0	0	0
56	53	-1	0	0	0	0
53	52	-1	0	0	0	0
52	49	-1	0	0	0	0
49	48	-1	0	0	0	0
48	45	-1	0	0	0	0
45	43	-1	0	0	0	0
43	42	-1	0	0	0	0
42	39	-1	0	0	0	0
39	38	-1	0	0	0	0
38	35	-1	0	0	0	0
24	25	-1	0	0	0	0
25	26	-1	0	0	0	0
26	27	-1	0	0	0	0
27	28	-1	0	0	0	0
28	29	-1	0	0	0	0
29	30	-1	0	0	0	0
30	31	-1	0	0	0	0
31	32	-1	0	0	0	0
32	33	-1	0	0	0	0
33	34	-1	0	0	0	0
23	24	-1	0	0	0	0
56	58	-1	0	0	0	0
57	55	-1	0	0	0	0
61	60	-1	0	0	0	0
62	391	-1	0	0	0	0
391	63	-1	0	0	0	0
82	390	-1	0	0	0	0
390	83	-1	0	0	0	0
93	94	-1	0	0	0	0
94	95	-1	0	0	0	0
129	392	-1	0	0	0	0
392	393	-1	0	0	0	0
393	394	-1	0	0	0	0
394	174	-1	0	0	0	0
174	186	-1	0	0	0	0
186	198	-1	0	0	0	0
198	210	-1	0	0	0	0
210	222	-1	0	0	0	0
222	234	-1	0	0	0	0
234	246	-1	0	0	0	0
246	258	-1	0	0	0	0
258	270	-1	0	0	0	0
270	282	-1	0	0	0	0
282	294	-1	0	0	0	0
294	306	-1	0	0	0	0
306	318	-1	0	0	0	0
318	330	-1	0	0	0	0
330	342	-1	0	0	0	0
342	354	-1	0	0	0	0
354	366	-1	0	0	0	0
366	378	-1	0	0	0	0
389	388	-1	0	0	0	0
388	387	-1	0	0	0	0
387	386	-1	0	0	0	0
386	385	-1	0	0	0	0
385	384	-1	0	0	0	0
384	383	-1	0	0	0	0
383	382	-1	0	0	0	0
382	381	-1	0	0	0	0
381	380	-1	0	0	0	0
380	379	-1	0	0	0	0
379	378	-1	0	0	0	0
379	367	-1	0	0	0	0
367	355	-1	0	0	0	0
355	343	-1	0	0	0	0
343	331	-1	0	0	0	0
331	319	-1	0	0	0	0
319	307	-1	0	0	0	0
307	295	-1	0	0	0	0
295	283	-1	0	0	0	0
283	271	-1	0	0	0	0
271	259	-1	0	0	0	0
259	247	-1	0	0	0	0
247	235	-1	0	0	0	0
235	223	-1	0	0	0	0
223	211	-1	0	0	0	0
211	199	-1	0	0	0	0
199	187	-1	0	0	0	0
187	175	-1	0	0	0	0
175	163	-1	0	0	0	0
163	152	-1	0	0	0	0
152	141	-1	0	0	0	0
141	130	-1	0	0	0	0
130	118	-1	0	0	0	0
118	106	-1	0	0	0	0
106	94	-1	0	0	0	0
94	390	-1	0	0	0	0
390	391	-1	0	0	0	0
391	61	-1	0	0	0	0
61	55	-1	0	0	0	0
55	56	-1	0	0	0	0
56	24	-1	0	0	0	0
25	53	-1	0	0	0	0
53	59	-1	0	0	0	0
59	54	-1	0	0	0	0
54	63	-1	0	0	0	0
63	83	-1	0	0	0	0
83	95	-1	0	0	0	0
95	107	-1	0	0	0	0
107	119	-1	0	0	0	0
119	131	-1	0	0	0	0
131	142	-1	0	0	0	0
142	153	-1	0	0	0	0
153	164	-1	0	0	0	0
164	176	-1	0	0	0	0
176	188	-1	0	0	0	0
188	200	-1	0	0	0	0
200	212	-1	0	0	0	0
212	224	-1	0	0	0	0
224	236	-1	0	0	0	0
236	248	-1	0	0	0	0
248	260	-1	0	0	0	0
260	272	-1	0	0	0	0
272	284	-1	0	0	0	0
284	296	-1	0	0	0	0
296	308	-1	0	0	0	0
308	320	-1	0	0	0	0
320	332	-1	0	0	0	0
332	344	-1	0	0	0	0
344	356	-1	0	0	0	0
356	368	-1	0	0	0	0
368	380	-1	0	0	0	0
381	369	-1	0	0	0	0
369	357	-1	0	0	0	0
357	345	-1	0	0	0	0
345	333	-1	0	0	0	0
333	321	-1	0	0	0	0
321	309	-1	0	0	0	0
309	297	-1	0	0	0	0
297	285	-1	0	0	0	0
285	273	-1	0	0	0	0
273	261	-1	0	0	0	0
261	249	-1	0	0	0	0
249	237	-1	0	0	0	0
237	225	-1	0	0	0	0
225	213	-1	0	0	0	0
213	201	-1	0	0	0	0
201	189	-1	0	0	0	0
189	177	-1	0	0	0	0
177	165	-1	0	0	0	0
165	154	-1	0	0	0	0
154	143	-1	0	0	0	0
143	132	-1	0	0	0	0
132	120	-1	0	0	0	0
120	108	-1	0	0	0	0
108	96	-1	0	0	0	0
96	84	-1	0	0	0	0
84	65	-1	0	0	0	0
65	64	-1	0	0	0	0
64	51	-1	0	0	0	0
51	52	-1	0	0	0	0
52	26	-1	0	0	0	0
27	49	-1	0	0	0	0
49	50	-1	0	0	0	0
50	66	-1	0	0	0	0
66	67	-1	0	0	0	0
67	85	-1	0	0	0	0
85	97	-1	0	0	0	0
97	109	-1	0	0	0	0
109	121	-1	0	0	0	0
121	133	-1	0	0	0	0
133	144	-1	0	0	0	0
144	155	-1	0	0	0	0
155	166	-1	0	0	0	0
166	178	-1	0	0	0	0
178	190	-1	0	0	0	0
190	202	-1	0	0	0	0
202	214	-1	0	0	0	0
214	226	-1	0	0	0	0
226	238	-1	0	0	0	0
238	250	-1	0	0	0	0
250	262	-1	0	0	0	0
262	274	-1	0	0	0	0
274	286	-1	0	0	0	0
286	298	-1	0	0	0	0
298	310	-1	0	0	0	0
310	322	-1	0	0	0	0
322	334	-1	0	0	0	0
334	346	-1	0	0	0	0
346	358	-1	0	0	0	0
358	370	-1	0	0	0	0
370	382	-1	0	0	0	0
383	371	-1	0	0	0	0
371	359	-1	0	0	0	0
359	347	-1	0	0	0	0
347	335	-1	0	0	0	0
335	323	-1	0	0	0	0
323	311	-1	0	0	0	0
311	299	-1	0	0	0	0
299	287	-1	0	0	0	0
287	275	-1	0	0	0	0
275	263	-1	0	0	0	0
263	251	-1	0	0	0	0
251	239	-1	0	0	0	0
239	227	-1	0	0	0	0
227	215	-1	0	0	0	0
215	203	-1	0	0	0	0
203	191	-1	0	0	0	0
191	179	-1	0	0	0	0
179	167	-1	0	0	0	0
167	156	-1	0	0	0	0
156	145	-1	0	0	0	0
145	134	-1	0	0	0	0
134	122	-1	0	0	0	0
122	110	-1	0	0	0	0
110	98	-1	0	0	0	0
98	86	-1	0	0	0	0
86	69	-1	0	0	0	0
69	68	-1	0	0	0	0
68	47	-1	0	0	0	0
47	48	-1	0	0	0	0
48	28	-1	0	0	0	0
29	45	-1	0	0	0	0
45	46	-1	0	0	0	0
46	70	-1	0	0	0	0
70	71	-1	0	0	0	0
71	87	-1	0	0	0	0
87	99	-1	0	0	0	0
99	111	-1	0	0	0	0
111	123	-1	0	0	0	0
123	135	-1	0	0	0	0
135	146	-1	0	0	0	0
146	157	-1	0	0	0	0
157	168	-1	0	0	0	0
168	180	-1	0	0	0	0
180	192	-1	0	0	0	0
192	204	-1	0	0	0	0
204	216	-1	0	0	0	0
216	228	-1	0	0	0	0
228	240	-1	0	0	0	0
240	252	-1	0	0	0	0
252	264	-1	0	0	0	0
264	276	-1	0	0	0	0
276	288	-1	0	0	0	0
288	300	-1	0	0	0	0
300	312	-1	0	0	0	0
312	324	-1	0	0	0	0
324	336	-1	0	0	0	0
336	348	-1	0	0	0	0
348	360	-1	0	0	0	0
360	372	-1	0	0	0	0
372	384	-1	0	0	0	0
389	377	-1	0	0	0	0
377	365	-1	0	0	0	0
365	353	-1	0	0	0	0
353	341	-1	0	0	0	0
341	329	-1	0	0	0	0
329	317	-1	0	0	0	0
317	305	-1	0	0	0	0
305	293	-1	0	0	0	0
293	281	-1	0	0	0	0
281	269	-1	0	0	0	0
269	257	-1	0	0	0	0
257	245	-1	0	0	0	0
245	233	-1	0	0	0	0
233	221	-1	0	0	0	0
221	209	-1	0	0	0	0
209	197	-1	0	0	0	0
197	185	-1	0	0	0	0
185	173	-1	0	0	0	0
173	162	-1	0	0	0	0
162	151	-1	0	0	0	0
151	140	-1	0	0	0	0
140	128	-1	0	0	0	0
128	116	-1	0	0	0	0
116	104	-1	0	0	0	0
104	92	-1	0	0	0	0
92	81	-1	0	0	0	0
81	80	-1	0	0	0	0
80	36	-1	0	0	0	0
36	35	-1	0	0	0	0
35	34	-1	0	0	0	0
33	38	-1	0	0	0	0
38	37	-1	0	0	0	0
37	79	-1	0	0	0	0
79	78	-1	0	0	0	0
78	91	-1	0	0	0	0
91	103	-1	0	0	0	0
103	115	-1	0	0	0	0
115	127	-1	0	0	0	0
127	139	-1	0	0	0	0
139	150	-1	0	0	0	0
150	161	-1	0	0	0	0
161	172	-1	0	0	0	0
172	184	-1	0	0	0	0
184	196	-1	0	0	0	0
196	208	-1	0	0	0	0
208	220	-1	0	0	0	0
220	232	-1	0	0	0	0
232	244	-1	0	0	0	0
244	256	-1	0	0	0	0
256	268	-1	0	0	0	0
268	280	-1	0	0	0	0
280	292	-1	0	0	0	0
292	304	-1	0	0	0	0
304	316	-1	0	0	0	0
316	328	-1	0	0	0	0
328	340	-1	0	0	0	0
340	352	-1	0	0	0	0
352	364	-1	0	0	0	0
364	376	-1	0	0	0	0
376	388	-1	0	0	0	0
387	375	-1	0	0	0	0
375	363	-1	0	0	0	0
363	351	-1	0	0	0	0
351	339	-1	0	0	0	0
339	327	-1	0	0	0	0
327	315	-1	0	0	0	0
315	303	-1	0	0	0	0
303	291	-1	0	0	0	0
291	279	-1	0	0	0	0
279	267	-1	0	0	0	0
267	255	-1	0	0	0	0
255	243	-1	0	0	0	0
243	231	-1	0	0	0	0
231	219	-1	0	0	0	0
219	207	-1	0	0	0	0
207	195	-1	0	0	0	0
195	183	-1	0	0	0	0
183	171	-1	0	0	0	0
171	160	-1	0	0	0	0
160	149	-1	0	0	0	0
149	138	-1	0	0	0	0
138	126	-1	0	0	0	0
126	114	-1	0	0	0	0
114	102	-1	0	0	0	0
102	90	-1	0	0	0	0
90	77	-1	0	0	0	0
77	76	-1	0	0	0	0
76	40	-1	0	0	0	0
40	39	-1	0	0	0	0
39	32	-1	0	0	0	0
31	42	-1	0	0	0	0
42	41	-1	0	0	0	0
41	75	-1	0	0	0	0
75	74	-1	0	0	0	0
74	89	-1	0	0	0	0
89	101	-1	0	0	0	0
101	113	-1	0	0	0	0
113	125	-1	0	0	0	0
125	137	-1	0	0	0	0
137	148	-1	0	0	0	0
148	159	-1	0	0	0	0
159	170	-1	0	0	0	0
170	182	-1	0	0	0	0