[Format]      =  1
[Precision]   =  1e-008
[Frequency]   =  600
[MinAngle]    =  30
[Depth]       =  1
[LengthUnits] =  meters
[ProblemType] =  axisymmetric
[Coordinates] =  cartesian
[Comment]     =  "Add comments here."
[PointProps]   = 0
[BdryProps]   = 1
  <BeginBdry>
    <BdryName> = "Infinity"
    <BdryType> = 1
    <vsr> = 0
    <vsi> = 0
    <qsr> = 0
    <qsi> = 0
    <c0r>  = 8.4325598263047606e-020
    <c0i>  = 0
    <c1r>  = 0
    <c1i>  = 0
  <EndBdry>
[BlockProps]  = 3
  <BeginBlock>
    <BlockName> = "Air"
    <ox> = 0
    <oy> = 0
    <ex> = 1
    <ey> = 1
    <ltx> = 0
    <lty> = 0
  <EndBlock>
  <BeginBlock>
    <BlockName> = "Au"
    <ox> = 41000000
    <oy> = 41000000
    <ex> = 6.9000000000000004
    <ey> = 6.9000000000000004
    <ltx> = 0
    <lty> = 0
  <EndBlock>
  <BeginBlock>
    <BlockName> = "Clay"
    <ox> = 0
    <oy> = 0
    <ex> = 3
    <ey> = 3
    <ltx> = 0
    <lty> = 0
  <EndBlock>
[ConductorProps]  = 2
  <BeginConductor>
    <ConductorName> = "Tip (Pt Ir)"
    <vcr> = 10
    <vci> = 0
    <qcr> = 0
    <qci> = 0
    <ConductorType> = 1
  <EndConductor>
  <BeginConductor>
    <ConductorName> = "Ground (Au)"
    <vcr> = 0
    <vci> = 0
    <qcr> = 0
    <qci> = 0
    <ConductorType> = 1
  <EndConductor>
[NumPoints] = 25
6.2400000000000002	1.02	0	0	0
0	1	0	0	0
0	3.25	0	0	0
0	4.25	0	0	0
0	11	0	0	0
10.5	1	0	0	0
0	19	0	0	0
0.5	3.75	0	0	0
7.6409152957318724	14.291351150842289	0	0	0
0	1.75	0	0	0
2	1	0	0	0
2	1.6000000000000001	0	0	0
1.8500000000000001	1.75	0	0	0
0.029999999999999999	1.72	0	0	0
1.6300000000000001	1.72	0	0	0
0.029999999999999999	1.78	0	0	0
1.6300000000000001	1.78	0	0	0
0.53000000000000003	3.75	0	0	0
0	3.2199999999999998	0	0	0
0.56000000000000005	3.75	0	0	0
0	3.1899999999999999	0	0	0
0.59000000000000008	3.75	0	0	0
0	3.1600000000000001	0	0	0
3.8399999999999999	8.5899999999999999	0	0	0
0.85999999999999999	4.2599999999999998	0	0	0
[NumSegments] = 16
1	10	-1	0	0	0	2
2	18	-1	0	0	0	0
18	20	-1	0	0	0	0
20	22	-1	0	0	0	0
22	9	-1	0	0	0	0
4	3	-1	0	0	0	0
0	5	-1	0	0	0	2
6	4	-1	0	0	0	0
3	2	-1	0	0	0	0
8	7	-1	0	0	0	1
9	1	-1	0	0	0	0
10	0	-1	0	0	0	2
11	10	-1	0	0	0	0
9	12	-1	0	0	0	0
15	16	-1	0	0	0	0
14	13	-1	0	0	0	0
[NumArcSegments] = 7
2	7	90	1	0	0	0	1
5	8	52.549430574292934	1	1	0	0	0
8	6	37.450569425707045	1	1	0	0	1
11	12	90	1	0	0	0	0
18	17	90	1	0	0	0	0
20	19	90	1	0	0	0	0
22	21	90	1	0	0	0	0
[NumHoles] = 1
0.25	4	0
[NumBlockLabels] = 2
2.75	4.75	1	0.050000000000000003	0	0
0.75	1.5	3	0.02	0	0
